tests/data/egret/case30.json
{"elements": {"bus": {"1": {"matpower_bustype": "ref", "area": 1.0, "vm": 1.0, "va": 0.0, "base_kv": 135.0, "zone": 1.0, "v_min": 0.95, "v_max": 1.05}, "2": {"matpower_bustype": "PV", "area": 1.0, "vm": 1.0, "va": 0.0, "base_kv": 135.0, "zone": 1.0, "v_min": 0.95, "v_max": 1.1}, "3": {"matpower_bustype": "PQ", "area": 1.0, "vm": 1.0, "va": 0.0, "base_kv": 135.0, "zone": 1.0, "v_min": 0.95, "v_max": 1.05}, "4": {"matpower_bustype": "PQ", "area": 1.0, "vm": 1.0, "va": 0.0, "base_kv": 135.0, "zone": 1.0, "v_min": 0.95, "v_max": 1.05}, "5": {"matpower_bustype": "PQ", "area": 1.0, "vm": 1.0, "va": 0.0, "base_kv": 135.0, "zone": 1.0, "v_min": 0.95, "v_max": 1.05}, "6": {"matpower_bustype": "PQ", "area": 1.0, "vm": 1.0, "va": 0.0, "base_kv": 135.0, "zone": 1.0, "v_min": 0.95, "v_max": 1.05}, "7": {"matpower_bustype": "PQ", "area": 1.0, "vm": 1.0, "va": 0.0, "base_kv": 135.0, "zone": 1.0, "v_min": 0.95, "v_max": 1.05}, "8": {"matpower_bustype": "PQ", "area": 1.0, "vm": 1.0, "va": 0.0, "base_kv": 135.0, "zone": 1.0, "v_min": 0.95, "v_max": 1.05}, "9": {"matpower_bustype": "PQ", "area": 1.0, "vm": 1.0, "va": 0.0, "base_kv": 135.0, "zone": 1.0, "v_min": 0.95, "v_max": 1.05}, "10": {"matpower_bustype": "PQ", "area": 3.0, "vm": 1.0, "va": 0.0, "base_kv": 135.0, "zone": 1.0, "v_min": 0.95, "v_max": 1.05}, "11": {"matpower_bustype": "PQ", "area": 1.0, "vm": 1.0, "va": 0.0, "base_kv": 135.0, "zone": 1.0, "v_min": 0.95, "v_max": 1.05}, "12": {"matpower_bustype": "PQ", "area": 2.0, "vm": 1.0, "va": 0.0, "base_kv": 135.0, "zone": 1.0, "v_min": 0.95, "v_max": 1.05}, "13": {"matpower_bustype": "PV", "area": 2.0, "vm": 1.0, "va": 0.0, "base_kv": 135.0, "zone": 1.0, "v_min": 0.95, "v_max": 1.1}, "14": {"matpower_bustype": "PQ", "area": 2.0, "vm": 1.0, "va": 0.0, "base_kv": 135.0, "zone": 1.0, "v_min": 0.95, "v_max": 1.05}, "15": {"matpower_bustype": "PQ", "area": 2.0, "vm": 1.0, "va": 0.0, "base_kv": 135.0, "zone": 1.0, "v_min": 0.95, "v_max": 1.05}, "16": {"matpower_bustype": "PQ", "area": 2.0, "vm": 1.0, "va": 0.0, "base_kv": 135.0, "zone": 1.0, "v_min": 0.95, "v_max": 1.05}, "17": {"matpower_bustype": "PQ", "area": 2.0, "vm": 1.0, "va": 0.0, "base_kv": 135.0, "zone": 1.0, "v_min": 0.95, "v_max": 1.05}, "18": {"matpower_bustype": "PQ", "area": 2.0, "vm": 1.0, "va": 0.0, "base_kv": 135.0, "zone": 1.0, "v_min": 0.95, "v_max": 1.05}, "19": {"matpower_bustype": "PQ", "area": 2.0, "vm": 1.0, "va": 0.0, "base_kv": 135.0, "zone": 1.0, "v_min": 0.95, "v_max": 1.05}, "20": {"matpower_bustype": "PQ", "area": 2.0, "vm": 1.0, "va": 0.0, "base_kv": 135.0, "zone": 1.0, "v_min": 0.95, "v_max": 1.05}, "21": {"matpower_bustype": "PQ", "area": 3.0, "vm": 1.0, "va": 0.0, "base_kv": 135.0, "zone": 1.0, "v_min": 0.95, "v_max": 1.05}, "22": {"matpower_bustype": "PV", "area": 3.0, "vm": 1.0, "va": 0.0, "base_kv": 135.0, "zone": 1.0, "v_min": 0.95, "v_max": 1.1}, "23": {"matpower_bustype": "PV", "area": 2.0, "vm": 1.0, "va": 0.0, "base_kv": 135.0, "zone": 1.0, "v_min": 0.95, "v_max": 1.1}, "24": {"matpower_bustype": "PQ", "area": 3.0, "vm": 1.0, "va": 0.0, "base_kv": 135.0, "zone": 1.0, "v_min": 0.95, "v_max": 1.05}, "25": {"matpower_bustype": "PQ", "area": 3.0, "vm": 1.0, "va": 0.0, "base_kv": 135.0, "zone": 1.0, "v_min": 0.95, "v_max": 1.05}, "26": {"matpower_bustype": "PQ", "area": 3.0, "vm": 1.0, "va": 0.0, "base_kv": 135.0, "zone": 1.0, "v_min": 0.95, "v_max": 1.05}, "27": {"matpower_bustype": "PV", "area": 3.0, "vm": 1.0, "va": 0.0, "base_kv": 135.0, "zone": 1.0, "v_min": 0.95, "v_max": 1.1}, "28": {"matpower_bustype": "PQ", "area": 1.0, "vm": 1.0, "va": 0.0, "base_kv": 135.0, "zone": 1.0, "v_min": 0.95, "v_max": 1.05}, "29": {"matpower_bustype": "PQ", "area": 3.0, "vm": 1.0, "va": 0.0, "base_kv": 135.0, "zone": 1.0, "v_min": 0.95, "v_max": 1.05}, "30": {"matpower_bustype": "PQ", "area": 3.0, "vm": 1.0, "va": 0.0, "base_kv": 135.0, "zone": 1.0, "v_min": 0.95, "v_max": 1.05}}, "load": {"load_2": {"in_service": true, "p_load": 21.7, "q_load": 12.7, "bus": "2"}, "load_3": {"in_service": true, "p_load": 2.4, "q_load": 1.2, "bus": "3"}, "load_4": {"in_service": true, "p_load": 7.6, "q_load": 1.6, "bus": "4"}, "load_7": {"in_service": true, "p_load": 22.8, "q_load": 10.9, "bus": "7"}, "load_8": {"in_service": true, "p_load": 30.0, "q_load": 30.0, "bus": "8"}, "load_10": {"in_service": true, "p_load": 5.8, "q_load": 2.0, "bus": "10"}, "load_12": {"in_service": true, "p_load": 11.2, "q_load": 7.5, "bus": "12"}, "load_14": {"in_service": true, "p_load": 6.2, "q_load": 1.6, "bus": "14"}, "load_15": {"in_service": true, "p_load": 8.2, "q_load": 2.5, "bus": "15"}, "load_16": {"in_service": true, "p_load": 3.5, "q_load": 1.8, "bus": "16"}, "load_17": {"in_service": true, "p_load": 9.0, "q_load": 5.8, "bus": "17"}, "load_18": {"in_service": true, "p_load": 3.2, "q_load": 0.9, "bus": "18"}, "load_19": {"in_service": true, "p_load": 9.5, "q_load": 3.4, "bus": "19"}, "load_20": {"in_service": true, "p_load": 2.2, "q_load": 0.7, "bus": "20"}, "load_21": {"in_service": true, "p_load": 17.5, "q_load": 11.2, "bus": "21"}, "load_23": {"in_service": true, "p_load": 3.2, "q_load": 1.6, "bus": "23"}, "load_24": {"in_service": true, "p_load": 8.7, "q_load": 6.7, "bus": "24"}, "load_26": {"in_service": true, "p_load": 3.5, "q_load": 2.3, "bus": "26"}, "load_29": {"in_service": true, "p_load": 2.4, "q_load": 0.9, "bus": "29"}, "load_30": {"in_service": true, "p_load": 10.6, "q_load": 1.9, "bus": "30"}}, "shunt": {"shunt_5": {"shunt_type": "fixed", "bs": 0.19, "gs": 0.0, "bus": "5"}, "shunt_24": {"shunt_type": "fixed", "bs": 0.04, "gs": 0.0, "bus": "24"}}, "generator": {"1": {"bus": "1", "pg": 23.54, "qg": 0.0, "vg": 1.0, "mbase": 100.0, "in_service": true, "p_min": 0.0, "p_max": 80.0, "q_min": -20.0, "q_max": 150.0, "generator_type": "thermal", "pc1": 0.0, "pc2": 0.0, "qc1_min": 0.0, "qc1_max": 0.0, "qc2_min": 0.0, "qc2_max": 0.0, "ramp_agc": 0.0, "ramp_10": 0.0, "ramp_30": 0.0, "ramp_q": 0.0, "power_factor": 0.0, "p_cost": {"data_type": "cost_curve", "cost_curve_type": "polynomial", "values": {"0": 0.0, "1": 2.0, "2": 0.02}}, "startup_cost": 0.0, "shutdown_cost": 0.0}, "2": {"bus": "2", "pg": 60.97, "qg": 0.0, "vg": 1.0, "mbase": 100.0, "in_service": true, "p_min": 0.0, "p_max": 80.0, "q_min": -20.0, "q_max": 60.0, "generator_type": "thermal", "pc1": 0.0, "pc2": 0.0, "qc1_min": 0.0, "qc1_max": 0.0, "qc2_min": 0.0, "qc2_max": 0.0, "ramp_agc": 0.0, "ramp_10": 0.0, "ramp_30": 0.0, "ramp_q": 0.0, "power_factor": 0.0, "p_cost": {"data_type": "cost_curve", "cost_curve_type": "polynomial", "values": {"0": 0.0, "1": 1.75, "2": 0.0175}}, "startup_cost": 0.0, "shutdown_cost": 0.0}, "3": {"bus": "22", "pg": 21.59, "qg": 0.0, "vg": 1.0, "mbase": 100.0, "in_service": true, "p_min": 0.0, "p_max": 50.0, "q_min": -15.0, "q_max": 62.5, "generator_type": "thermal", "pc1": 0.0, "pc2": 0.0, "qc1_min": 0.0, "qc1_max": 0.0, "qc2_min": 0.0, "qc2_max": 0.0, "ramp_agc": 0.0, "ramp_10": 0.0, "ramp_30": 0.0, "ramp_q": 0.0, "power_factor": 0.0, "p_cost": {"data_type": "cost_curve", "cost_curve_type": "polynomial", "values": {"0": 0.0, "1": 1.0, "2": 0.0625}}, "startup_cost": 0.0, "shutdown_cost": 0.0}, "4": {"bus": "27", "pg": 26.91, "qg": 0.0, "vg": 1.0, "mbase": 100.0, "in_service": true, "p_min": 0.0, "p_max": 55.0, "q_min": -15.0, "q_max": 48.7, "generator_type": "thermal", "pc1": 0.0, "pc2": 0.0, "qc1_min": 0.0, "qc1_max": 0.0, "qc2_min": 0.0, "qc2_max": 0.0, "ramp_agc": 0.0, "ramp_10": 0.0, "ramp_30": 0.0, "ramp_q": 0.0, "power_factor": 0.0, "p_cost": {"data_type": "cost_curve", "cost_curve_type": "polynomial", "values": {"0": 0.0, "1": 3.25, "2": 0.00834}}, "startup_cost": 0.0, "shutdown_cost": 0.0}, "5": {"bus": "23", "pg": 19.2, "qg": 0.0, "vg": 1.0, "mbase": 100.0, "in_service": true, "p_min": 0.0, "p_max": 30.0, "q_min": -10.0, "q_max": 40.0, "generator_type": "thermal", "pc1": 0.0, "pc2": 0.0, "qc1_min": 0.0, "qc1_max": 0.0, "qc2_min": 0.0, "qc2_max": 0.0, "ramp_agc": 0.0, "ramp_10": 0.0, "ramp_30": 0.0, "ramp_q": 0.0, "power_factor": 0.0, "p_cost": {"data_type": "cost_curve", "cost_curve_type": "polynomial", "values": {"0": 0.0, "1": 3.0, "2": 0.025}}, "startup_cost": 0.0, "shutdown_cost": 0.0}, "6": {"bus": "13", "pg": 37.0, "qg": 0.0, "vg": 1.0, "mbase": 100.0, "in_service": true, "p_min": 0.0, "p_max": 40.0, "q_min": -15.0, "q_max": 44.7, "generator_type": "thermal", "pc1": 0.0, "pc2": 0.0, "qc1_min": 0.0, "qc1_max": 0.0, "qc2_min": 0.0, "qc2_max": 0.0, "ramp_agc": 0.0, "ramp_10": 0.0, "ramp_30": 0.0, "ramp_q": 0.0, "power_factor": 0.0, "p_cost": {"data_type": "cost_curve", "cost_curve_type": "polynomial", "values": {"0": 0.0, "1": 3.0, "2": 0.025}}, "startup_cost": 0.0, "shutdown_cost": 0.0}}, "branch": {"1": {"from_bus": "1", "to_bus": "2", "resistance": 0.02, "reactance": 0.06, "charging_susceptance": 0.03, "branch_type": "line", "rating_long_term": 130.0, "rating_short_term": 130.0, "rating_emergency": 130.0, "in_service": true, "angle_diff_min": -360.0, "angle_diff_max": 360.0, "pf": null, "qf": null, "pt": null, "qt": null}, "2": {"from_bus": "1", "to_bus": "3", "resistance": 0.05, "reactance": 0.19, "charging_susceptance": 0.02, "branch_type": "line", "rating_long_term": 130.0, "rating_short_term": 130.0, "rating_emergency": 130.0, "in_service": true, "angle_diff_min": -360.0, "angle_diff_max": 360.0, "pf": null, "qf": null, "pt": null, "qt": null}, "3": {"from_bus": "2", "to_bus": "4", "resistance": 0.06, "reactance": 0.17, "charging_susceptance": 0.02, "branch_type": "line", "rating_long_term": 65.0, "rating_short_term": 65.0, "rating_emergency": 65.0, "in_service": true, "angle_diff_min": -360.0, "angle_diff_max": 360.0, "pf": null, "qf": null, "pt": null, "qt": null}, "4": {"from_bus": "3", "to_bus": "4", "resistance": 0.01, "reactance": 0.04, "charging_susceptance": 0.0, "branch_type": "line", "rating_long_term": 130.0, "rating_short_term": 130.0, "rating_emergency": 130.0, "in_service": true, "angle_diff_min": -360.0, "angle_diff_max": 360.0, "pf": null, "qf": null, "pt": null, "qt": null}, "5": {"from_bus": "2", "to_bus": "5", "resistance": 0.05, "reactance": 0.2, "charging_susceptance": 0.02, "branch_type": "line", "rating_long_term": 130.0, "rating_short_term": 130.0, "rating_emergency": 130.0, "in_service": true, "angle_diff_min": -360.0, "angle_diff_max": 360.0, "pf": null, "qf": null, "pt": null, "qt": null}, "6": {"from_bus": "2", "to_bus": "6", "resistance": 0.06, "reactance": 0.18, "charging_susceptance": 0.02, "branch_type": "line", "rating_long_term": 65.0, "rating_short_term": 65.0, "rating_emergency": 65.0, "in_service": true, "angle_diff_min": -360.0, "angle_diff_max": 360.0, "pf": null, "qf": null, "pt": null, "qt": null}, "7": {"from_bus": "4", "to_bus": "6", "resistance": 0.01, "reactance": 0.04, "charging_susceptance": 0.0, "branch_type": "line", "rating_long_term": 90.0, "rating_short_term": 90.0, "rating_emergency": 90.0, "in_service": true, "angle_diff_min": -360.0, "angle_diff_max": 360.0, "pf": null, "qf": null, "pt": null, "qt": null}, "8": {"from_bus": "5", "to_bus": "7", "resistance": 0.05, "reactance": 0.12, "charging_susceptance": 0.01, "branch_type": "line", "rating_long_term": 70.0, "rating_short_term": 70.0, "rating_emergency": 70.0, "in_service": true, "angle_diff_min": -360.0, "angle_diff_max": 360.0, "pf": null, "qf": null, "pt": null, "qt": null}, "9": {"from_bus": "6", "to_bus": "7", "resistance": 0.03, "reactance": 0.08, "charging_susceptance": 0.01, "branch_type": "line", "rating_long_term": 130.0, "rating_short_term": 130.0, "rating_emergency": 130.0, "in_service": true, "angle_diff_min": -360.0, "angle_diff_max": 360.0, "pf": null, "qf": null, "pt": null, "qt": null}, "10": {"from_bus": "6", "to_bus": "8", "resistance": 0.01, "reactance": 0.04, "charging_susceptance": 0.0, "branch_type": "line", "rating_long_term": 32.0, "rating_short_term": 32.0, "rating_emergency": 32.0, "in_service": true, "angle_diff_min": -360.0, "angle_diff_max": 360.0, "pf": null, "qf": null, "pt": null, "qt": null}, "11": {"from_bus": "6", "to_bus": "9", "resistance": 0.0, "reactance": 0.21, "charging_susceptance": 0.0, "branch_type": "line", "rating_long_term": 65.0, "rating_short_term": 65.0, "rating_emergency": 65.0, "in_service": true, "angle_diff_min": -360.0, "angle_diff_max": 360.0, "pf": null, "qf": null, "pt": null, "qt": null}, "12": {"from_bus": "6", "to_bus": "10", "resistance": 0.0, "reactance": 0.56, "charging_susceptance": 0.0, "branch_type": "line", "rating_long_term": 32.0, "rating_short_term": 32.0, "rating_emergency": 32.0, "in_service": true, "angle_diff_min": -360.0, "angle_diff_max": 360.0, "pf": null, "qf": null, "pt": null, "qt": null}, "13": {"from_bus": "9", "to_bus": "11", "resistance": 0.0, "reactance": 0.21, "charging_susceptance": 0.0, "branch_type": "line", "rating_long_term": 65.0, "rating_short_term": 65.0, "rating_emergency": 65.0, "in_service": true, "angle_diff_min": -360.0, "angle_diff_max": 360.0, "pf": null, "qf": null, "pt": null, "qt": null}, "14": {"from_bus": "9", "to_bus": "10", "resistance": 0.0, "reactance": 0.11, "charging_susceptance": 0.0, "branch_type": "line", "rating_long_term": 65.0, "rating_short_term": 65.0, "rating_emergency": 65.0, "in_service": true, "angle_diff_min": -360.0, "angle_diff_max": 360.0, "pf": null, "qf": null, "pt": null, "qt": null}, "15": {"from_bus": "4", "to_bus": "12", "resistance": 0.0, "reactance": 0.26, "charging_susceptance": 0.0, "branch_type": "line", "rating_long_term": 65.0, "rating_short_term": 65.0, "rating_emergency": 65.0, "in_service": true, "angle_diff_min": -360.0, "angle_diff_max": 360.0, "pf": null, "qf": null, "pt": null, "qt": null}, "16": {"from_bus": "12", "to_bus": "13", "resistance": 0.0, "reactance": 0.14, "charging_susceptance": 0.0, "branch_type": "line", "rating_long_term": 65.0, "rating_short_term": 65.0, "rating_emergency": 65.0, "in_service": true, "angle_diff_min": -360.0, "angle_diff_max": 360.0, "pf": null, "qf": null, "pt": null, "qt": null}, "17": {"from_bus": "12", "to_bus": "14", "resistance": 0.12, "reactance": 0.26, "charging_susceptance": 0.0, "branch_type": "line", "rating_long_term": 32.0, "rating_short_term": 32.0, "rating_emergency": 32.0, "in_service": true, "angle_diff_min": -360.0, "angle_diff_max": 360.0, "pf": null, "qf": null, "pt": null, "qt": null}, "18": {"from_bus": "12", "to_bus": "15", "resistance": 0.07, "reactance": 0.13, "charging_susceptance": 0.0, "branch_type": "line", "rating_long_term": 32.0, "rating_short_term": 32.0, "rating_emergency": 32.0, "in_service": true, "angle_diff_min": -360.0, "angle_diff_max": 360.0, "pf": null, "qf": null, "pt": null, "qt": null}, "19": {"from_bus": "12", "to_bus": "16", "resistance": 0.09, "reactance": 0.2, "charging_susceptance": 0.0, "branch_type": "line", "rating_long_term": 32.0, "rating_short_term": 32.0, "rating_emergency": 32.0, "in_service": true, "angle_diff_min": -360.0, "angle_diff_max": 360.0, "pf": null, "qf": null, "pt": null, "qt": null}, "20": {"from_bus": "14", "to_bus": "15", "resistance": 0.22, "reactance": 0.2, "charging_susceptance": 0.0, "branch_type": "line", "rating_long_term": 16.0, "rating_short_term": 16.0, "rating_emergency": 16.0, "in_service": true, "angle_diff_min": -360.0, "angle_diff_max": 360.0, "pf": null, "qf": null, "pt": null, "qt": null}, "21": {"from_bus": "16", "to_bus": "17", "resistance": 0.08, "reactance": 0.19, "charging_susceptance": 0.0, "branch_type": "line", "rating_long_term": 16.0, "rating_short_term": 16.0, "rating_emergency": 16.0, "in_service": true, "angle_diff_min": -360.0, "angle_diff_max": 360.0, "pf": null, "qf": null, "pt": null, "qt": null}, "22": {"from_bus": "15", "to_bus": "18", "resistance": 0.11, "reactance": 0.22, "charging_susceptance": 0.0, "branch_type": "line", "rating_long_term": 16.0, "rating_short_term": 16.0, "rating_emergency": 16.0, "in_service": true, "angle_diff_min": -360.0, "angle_diff_max": 360.0, "pf": null, "qf": null, "pt": null, "qt": null}, "23": {"from_bus": "18", "to_bus": "19", "resistance": 0.06, "reactance": 0.13, "charging_susceptance": 0.0, "branch_type": "line", "rating_long_term": 16.0, "rating_short_term": 16.0, "rating_emergency": 16.0, "in_service": true, "angle_diff_min": -360.0, "angle_diff_max": 360.0, "pf": null, "qf": null, "pt": null, "qt": null}, "24": {"from_bus": "19", "to_bus": "20", "resistance": 0.03, "reactance": 0.07, "charging_susceptance": 0.0, "branch_type": "line", "rating_long_term": 32.0, "rating_short_term": 32.0, "rating_emergency": 32.0, "in_service": true, "angle_diff_min": -360.0, "angle_diff_max": 360.0, "pf": null, "qf": null, "pt": null, "qt": null}, "25": {"from_bus": "10", "to_bus": "20", "resistance": 0.09, "reactance": 0.21, "charging_susceptance": 0.0, "branch_type": "line", "rating_long_term": 32.0, "rating_short_term": 32.0, "rating_emergency": 32.0, "in_service": true, "angle_diff_min": -360.0, "angle_diff_max": 360.0, "pf": null, "qf": null, "pt": null, "qt": null}, "26": {"from_bus": "10", "to_bus": "17", "resistance": 0.03, "reactance": 0.08, "charging_susceptance": 0.0, "branch_type": "line", "rating_long_term": 32.0, "rating_short_term": 32.0, "rating_emergency": 32.0, "in_service": true, "angle_diff_min": -360.0, "angle_diff_max": 360.0, "pf": null, "qf": null, "pt": null, "qt": null}, "27": {"from_bus": "10", "to_bus": "21", "resistance": 0.03, "reactance": 0.07, "charging_susceptance": 0.0, "branch_type": "line", "rating_long_term": 32.0, "rating_short_term": 32.0, "rating_emergency": 32.0, "in_service": true, "angle_diff_min": -360.0, "angle_diff_max": 360.0, "pf": null, "qf": null, "pt": null, "qt": null}, "28": {"from_bus": "10", "to_bus": "22", "resistance": 0.07, "reactance": 0.15, "charging_susceptance": 0.0, "branch_type": "line", "rating_long_term": 32.0, "rating_short_term": 32.0, "rating_emergency": 32.0, "in_service": true, "angle_diff_min": -360.0, "angle_diff_max": 360.0, "pf": null, "qf": null, "pt": null, "qt": null}, "29": {"from_bus": "21", "to_bus": "22", "resistance": 0.01, "reactance": 0.02, "charging_susceptance": 0.0, "branch_type": "line", "rating_long_term": 32.0, "rating_short_term": 32.0, "rating_emergency": 32.0, "in_service": true, "angle_diff_min": -360.0, "angle_diff_max": 360.0, "pf": null, "qf": null, "pt": null, "qt": null}, "30": {"from_bus": "15", "to_bus": "23", "resistance": 0.1, "reactance": 0.2, "charging_susceptance": 0.0, "branch_type": "line", "rating_long_term": 16.0, "rating_short_term": 16.0, "rating_emergency": 16.0, "in_service": true, "angle_diff_min": -360.0, "angle_diff_max": 360.0, "pf": null, "qf": null, "pt": null, "qt": null}, "31": {"from_bus": "22", "to_bus": "24", "resistance": 0.12, "reactance": 0.18, "charging_susceptance": 0.0, "branch_type": "line", "rating_long_term": 16.0, "rating_short_term": 16.0, "rating_emergency": 16.0, "in_service": true, "angle_diff_min": -360.0, "angle_diff_max": 360.0, "pf": null, "qf": null, "pt": null, "qt": null}, "32": {"from_bus": "23", "to_bus": "24", "resistance": 0.13, "reactance": 0.27, "charging_susceptance": 0.0, "branch_type": "line", "rating_long_term": 16.0, "rating_short_term": 16.0, "rating_emergency": 16.0, "in_service": true, "angle_diff_min": -360.0, "angle_diff_max": 360.0, "pf": null, "qf": null, "pt": null, "qt": null}, "33": {"from_bus": "24", "to_bus": "25", "resistance": 0.19, "reactance": 0.33, "charging_susceptance": 0.0, "branch_type": "line", "rating_long_term": 16.0, "rating_short_term": 16.0, "rating_emergency": 16.0, "in_service": true, "angle_diff_min": -360.0, "angle_diff_max": 360.0, "pf": null, "qf": null, "pt": null, "qt": null}, "34": {"from_bus": "25", "to_bus": "26", "resistance": 0.25, "reactance": 0.38, "charging_susceptance": 0.0, "branch_type": "line", "rating_long_term": 16.0, "rating_short_term": 16.0, "rating_emergency": 16.0, "in_service": true, "angle_diff_min": -360.0, "angle_diff_max": 360.0, "pf": null, "qf": null, "pt": null, "qt": null}, "35": {"from_bus": "25", "to_bus": "27", "resistance": 0.11, "reactance": 0.21, "charging_susceptance": 0.0, "branch_type": "line", "rating_long_term": 16.0, "rating_short_term": 16.0, "rating_emergency": 16.0, "in_service": true, "angle_diff_min": -360.0, "angle_diff_max": 360.0, "pf": null, "qf": null, "pt": null, "qt": null}, "36": {"from_bus": "28", "to_bus": "27", "resistance": 0.0, "reactance": 0.4, "charging_susceptance": 0.0, "branch_type": "line", "rating_long_term": 65.0, "rating_short_term": 65.0, "rating_emergency": 65.0, "in_service": true, "angle_diff_min": -360.0, "angle_diff_max": 360.0, "pf": null, "qf": null, "pt": null, "qt": null}, "37": {"from_bus": "27", "to_bus": "29", "resistance": 0.22, "reactance": 0.42, "charging_susceptance": 0.0, "branch_type": "line", "rating_long_term": 16.0, "rating_short_term": 16.0, "rating_emergency": 16.0, "in_service": true, "angle_diff_min": -360.0, "angle_diff_max": 360.0, "pf": null, "qf": null, "pt": null, "qt": null}, "38": {"from_bus": "27", "to_bus": "30", "resistance": 0.32, "reactance": 0.6, "charging_susceptance": 0.0, "branch_type": "line", "rating_long_term": 16.0, "rating_short_term": 16.0, "rating_emergency": 16.0, "in_service": true, "angle_diff_min": -360.0, "angle_diff_max": 360.0, "pf": null, "qf": null, "pt": null, "qt": null}, "39": {"from_bus": "29", "to_bus": "30", "resistance": 0.24, "reactance": 0.45, "charging_susceptance": 0.0, "branch_type": "line", "rating_long_term": 16.0, "rating_short_term": 16.0, "rating_emergency": 16.0, "in_service": true, "angle_diff_min": -360.0, "angle_diff_max": 360.0, "pf": null, "qf": null, "pt": null, "qt": null}, "40": {"from_bus": "8", "to_bus": "28", "resistance": 0.06, "reactance": 0.2, "charging_susceptance": 0.02, "branch_type": "line", "rating_long_term": 32.0, "rating_short_term": 32.0, "rating_emergency": 32.0, "in_service": true, "angle_diff_min": -360.0, "angle_diff_max": 360.0, "pf": null, "qf": null, "pt": null, "qt": null}, "41": {"from_bus": "6", "to_bus": "28", "resistance": 0.02, "reactance": 0.06, "charging_susceptance": 0.01, "branch_type": "line", "rating_long_term": 32.0, "rating_short_term": 32.0, "rating_emergency": 32.0, "in_service": true, "angle_diff_min": -360.0, "angle_diff_max": 360.0, "pf": null, "qf": null, "pt": null, "qt": null}}}, "system": {"model_name": "case30", "mpc_version": "'2'", "baseMVA": 100.0, "reference_bus": "1", "reference_bus_angle": 0.0}}